CM ECE 6370 - Homework 8.1
CM Caitlyn Caggia
CE Calculation 1
GW 1 11 -0.075 0. -0.05 -0.075. 0. 0.05 0.00025
GW 2 11 0. 0. -0.05 0. 0. 0.05 0.00025
GW 3 11 0.075 0. -0.05 0.075 0. 0.05 0.00025
GE
EX 0  1  6  0  1.0  0  
FR 0  1  0  0  1500. 0.
RP 0  1  0  1000  0.  0.  0.  0.
EN