CM ECE 6370 - Homework 8.5
CE Caitlyn Caggia
GW 1 11 -0.075 0. -0.05 -0.075. 0. 0.05 0.00025
GW 2 11 0. 0. -0.05 0. 0. 0.05 0.00025
GW 3 11 0.075 0. -0.05 0.075 0. 0.05 0.00025
GE
EX 0  1  6  0  3.28333 4.95580  
EX 0  2  6  0  3.10466 -13.14395 
EX 0  3  6  0  -11.27266 12.19128 
FR 0  1  0  0  1500. 0.
RP 0  181  91  1000  0.  0.  2  2
EN