CM Homework #1
CM UDA-YAGI array of square loops
CE 3 ELEMENT DESIGN
GW 1  5 -0.15 -0.131  0.131  -0.15  0.131  0.131  0.005
GW 2  5 -0.15 -0.131 -0.131  -0.15  0.131 -0.131  0.005
GW 3  5 -0.15 -0.131 -0.131  -0.15 -0.131  0.131  0.005
GW 4  5 -0.15  0.131 -0.131  -0.15  0.131  0.131  0.005
GW 5  5  0.0 -0.125  0.125   0.0  0.125  0.125  0.005
GW 6  5  0.0 -0.125 -0.125   0.0  0.125 -0.125  0.005
GW 7  5  0.0 -0.125 -0.125   0.0 -0.125  0.125  0.005
GW 8  5  0.0  0.125 -0.125   0.0  0.125  0.125  0.005
GW 9  5  0.15 -0.118  0.118   0.15  0.118  0.118  0.005
GW 10 5  0.15 -0.118 -0.118   0.15  0.118 -0.118  0.005
GW 11 5  0.15 -0.118 -0.118   0.15 -0.118  0.118  0.005
GW 12 5  0.15  0.118 -0.118   0.15  0.118  0.118  0.005
GE
EX 0  5  3  0  1.0  0.0  
FR 0  121  0  0  240  1
RP 0  1  1  1000  90.  0.  2.  4.
EN
FR 0  1  0  0  299.8
RP 0  91  91  1000  0.  0.  2.  4.