CM ECE 6370 Homework 9
CM Caitlyn Caggia
CM Yagi Uda Array with 10 Elements
CE File Generated by MatLab
GW   1   5  -0.0246   0.0174   0.0174  -0.0246   0.0174  -0.0174   0.0008
GW   2   5  -0.0246   0.0174  -0.0174  -0.0246  -0.0174  -0.0174   0.0008
GW   3   5  -0.0246  -0.0174   0.0174  -0.0246   0.0174   0.0174   0.0008
GW   4   5  -0.0246  -0.0174  -0.0174  -0.0246  -0.0174   0.0174   0.0008
GW   5   5   0.0000   0.0159   0.0159   0.0000   0.0159  -0.0159   0.0013
GW   6   5   0.0000   0.0159  -0.0159   0.0000  -0.0159  -0.0159   0.0013
GW   7   5   0.0000  -0.0159   0.0159   0.0000   0.0159   0.0159   0.0013
GW   8   5   0.0000  -0.0159  -0.0159   0.0000  -0.0159   0.0159   0.0013
GW   9   5   0.0246   0.0161   0.0161   0.0246   0.0161  -0.0161   0.0012
GW  10   5   0.0246   0.0161  -0.0161   0.0246  -0.0161  -0.0161   0.0012
GW  11   5   0.0246  -0.0161   0.0161   0.0246   0.0161   0.0161   0.0012
GW  12   5   0.0246  -0.0161  -0.0161   0.0246  -0.0161   0.0161   0.0012
GW  13   5   0.0491   0.0156   0.0156   0.0491   0.0156  -0.0156   0.0012
GW  14   5   0.0491   0.0156  -0.0156   0.0491  -0.0156  -0.0156   0.0012
GW  15   5   0.0491  -0.0156   0.0156   0.0491   0.0156   0.0156   0.0012
GW  16   5   0.0491  -0.0156  -0.0156   0.0491  -0.0156   0.0156   0.0012
GW  17   5   0.0737   0.0139   0.0139   0.0737   0.0139  -0.0139   0.0015
GW  18   5   0.0737   0.0139  -0.0139   0.0737  -0.0139  -0.0139   0.0015
GW  19   5   0.0737  -0.0139   0.0139   0.0737   0.0139   0.0139   0.0015
GW  20   5   0.0737  -0.0139  -0.0139   0.0737  -0.0139   0.0139   0.0015
GW  21   5   0.0983   0.0150   0.0150   0.0983   0.0150  -0.0150   0.0002
GW  22   5   0.0983   0.0150  -0.0150   0.0983  -0.0150  -0.0150   0.0002
GW  23   5   0.0983  -0.0150   0.0150   0.0983   0.0150   0.0150   0.0002
GW  24   5   0.0983  -0.0150  -0.0150   0.0983  -0.0150   0.0150   0.0002
GW  25   5   0.1229   0.0145   0.0145   0.1229   0.0145  -0.0145   0.0003
GW  26   5   0.1229   0.0145  -0.0145   0.1229  -0.0145  -0.0145   0.0003
GW  27   5   0.1229  -0.0145   0.0145   0.1229   0.0145   0.0145   0.0003
GW  28   5   0.1229  -0.0145  -0.0145   0.1229  -0.0145   0.0145   0.0003
GW  29   5   0.1474   0.0134   0.0134   0.1474   0.0134  -0.0134   0.0007
GW  30   5   0.1474   0.0134  -0.0134   0.1474  -0.0134  -0.0134   0.0007
GW  31   5   0.1474  -0.0134   0.0134   0.1474   0.0134   0.0134   0.0007
GW  32   5   0.1474  -0.0134  -0.0134   0.1474  -0.0134   0.0134   0.0007
GW  33   5   0.1720   0.0132   0.0132   0.1720   0.0132  -0.0132   0.0014
GW  34   5   0.1720   0.0132  -0.0132   0.1720  -0.0132  -0.0132   0.0014
GW  35   5   0.1720  -0.0132   0.0132   0.1720   0.0132   0.0132   0.0014
GW  36   5   0.1720  -0.0132  -0.0132   0.1720  -0.0132   0.0132   0.0014
GW  37   5   0.1966   0.0159   0.0159   0.1966   0.0159  -0.0159   0.0014
GW  38   5   0.1966   0.0159  -0.0159   0.1966  -0.0159  -0.0159   0.0014
GW  39   5   0.1966  -0.0159   0.0159   0.1966   0.0159   0.0159   0.0014
GW  40   5   0.1966  -0.0159  -0.0159   0.1966  -0.0159   0.0159   0.0014
GE
EX   0   5   3   0   1.0000   0.0000
FR   0   300   0   0 2300.0000   1.0000
RP   0   1   1 1000  90.0000   0.0000   0.0000   0.0000
EN
