CM EXAMPLE #3
CM LOG-PERIODIC DIPOLE ARRAY
CM 7.5DB, SIGMA=0.158, TAU=.863
CM L11=0.778 M L1=3.393 M
CM 75 OHM INPUT IMPEDANCE
CM 11 ELEMENTS, K=L/D=130
CE 50MHZ < F < 100MHZ
GW 1  7   0.      -0.3890  0.  0.      0.3890  0.  0.0032
GW 2  7  -0.2854  -0.4506  0. -0.2854  0.4506  0.  0.0032
GW 3  7  -0.6161  -0.5222  0. -0.6161  0.5222  0.  0.0040
GW 4  7  -0.9993  -0.6051  0. -0.9993  0.6051  0.  0.0048
GW 5  7  -1.4432  -0.7011  0. -1.4432  0.7011  0.  0.0056
GW 6  7  -1.9576  -0.8123  0. -1.9576  0.8123  0.  0.0064
GW 7  7  -2.5536  -0.9411  0. -2.5536  0.9411  0.  0.0072
GW 8  7  -3.2442  -1.0905  0. -3.2442  1.0905  0.  0.0088
GW 9  7  -4.0444  -1.2635  0. -4.0444  1.2635  0.  0.0096
GW 10 7  -4.9715  -1.4640  0. -4.9715  1.4640  0.  0.0111
GW 11 7  -6.0457  -1.6963  0. -6.0457  1.6963  0.  0.0126
GE
TL  1  4  2   4  -86
TL  2  4  3   4  -86
TL  3  4  4   4  -86
TL  4  4  5   4  -86
TL  5  4  6   4  -86
TL  6  4  7   4  -86
TL  7  4  8   4  -86
TL  8  4  9   4  -86
TL  9  4  10  4  -86
TL 10  4  11  4  -86
EX 0  1  4  0  1.0  0.0  
FR 0  6  0  0  50.  10.
RP 0  91  91  1000  0.  0.  2.  4.
EN

