CM EXAMPLE #2
CM UDA-YAGI ANTENNA
CE NBS 3 ELEMENT DESIGN
GW 1 7  0.  0. -0.231  0.  0. 0.231 0.00425
GW 2 7 -0.2 0. -0.241 -0.2 0. 0.241 0.00425
GW 3 7  0.2 0. -0.221  0.2 0. 0.221 0.00425
GE
EX 0  1  4  0  1.0  0.0  
FR 0  1  0  0  299.8
RP 0  91  91  1000  0.  0.  2.  4.
EN