CM EXAMPLE #2
CM UDA-YAGI ANTENNA
CE NBS 15 ELEMENT DESIGN
GW 1  7  0.    0. -0.22475  0.  0. 0.22475 0.00425
GW 2  7 -0.2   0. -0.2375 -0.2 0.  0.2375  0.00425
GW 3  7  0.308 0. -0.212  0.308 0. 0.212  0.00425
GW 4  7  0.616 0. -0.212  0.616 0. 0.212  0.00425
GW 5  7  0.924 0. -0.21   0.924 0. 0.21   0.00425
GW 6  7  1.232 0. -0.2035 1.232 0. 0.2035 0.00425
GW 7  7  1.540 0. -0.2015 1.540 0. 0.2015 0.00425
GW 8  7  1.848 0. -0.199  1.848 0. 0.199  0.00425
GW 9  7  2.156 0. -0.197  2.156 0. 0.197  0.00425
GW 10 7  2.464 0. -0.195  2.464 0. 0.195  0.00425
GW 11 7  2.772 0. -0.195  2.772 0. 0.195  0.00425
GW 12 7  3.080 0. -0.195  3.080 0. 0.195  0.00425
GW 13 7  3.388 0. -0.195  3.388 0. 0.195  0.00425
GW 14 7  3.696 0. -0.195  3.696 0. 0.195  0.00425
GW 15 7  4.004 0. -0.195  4.004 0. 0.195  0.00425
GE
EX 0  1  4  0  1.0  0.0  
FR 0  1  0  0  299.8
RP 0  91  91  1000  0.  0.  2.  4.
EN