CM EXAMPLE
CM UDA-YAGI ANTENNA
CE FIle Generated by MatLab
GW   1   7  -0.3998   0.0000  -0.1750  -0.3998   0.0000   0.1750   0.0043
GW   2   7   0.0000   0.0000  -0.2750   0.0000   0.0000   0.2750   0.0043
GW   3   7   0.3647   0.0000  -0.1750   0.3647   0.0000   0.1750   0.0043
GE
EX   0   2   4   0   1.0000   0.0000
FR   0   1   0   0 299.8000   0.0000
RP   0   1   1 1000  90.0000   0.0000   0.0000   0.0000
EN
